data_cif

_audit_creation_method             'generated by GULP'

_symmetry_space_group_name_H-M     'P 1'
_symmetry_Int_Tables_number        1
_symmetry_cell_setting             triclinic

_cell_length_a                       13.7112
_cell_length_b                       12.6646
_cell_length_c                       18.5277
_cell_angle_alpha                   90.0000
_cell_angle_beta                    90.0000
_cell_angle_gamma                   90.0000

loop_
_atom_site_label
_atom_site_fract_x
_atom_site_fract_y
_atom_site_fract_z
_atom_site_occupancy
  Si          0.11260      0.03690      0.16640  1.0000
  Si          0.88412      0.96306      0.83372  1.0000
  Si          0.88412      0.96306      0.66640  1.0000
  Si          0.11260      0.03690      0.33372  1.0000
  Si          0.88412      0.03690      0.33372  1.0000
  Si          0.11260      0.96306      0.66640  1.0000
  Si          0.11260      0.96306      0.83372  1.0000
  Si          0.88412      0.03690      0.16640  1.0000
  Si          0.61260      0.53690      0.16640  1.0000
  Si          0.38412      0.46306      0.83372  1.0000
  Si          0.38412      0.46306      0.66640  1.0000
  Si          0.61260      0.53690      0.33372  1.0000
  Si          0.38412      0.53690      0.33372  1.0000
  Si          0.61260      0.46306      0.66640  1.0000
  Si          0.61260      0.46306      0.83372  1.0000
  Si          0.38412      0.53690      0.16640  1.0000
  Si          0.11194      0.76993      0.93878  1.0000
  Si          0.88478      0.23002      0.06134  1.0000
  Si          0.88478      0.23002      0.43878  1.0000
  Si          0.11194      0.76993      0.56134  1.0000
  Si          0.88478      0.76993      0.56134  1.0000
  Si          0.11194      0.23002      0.43878  1.0000
  Si          0.11194      0.23002      0.06134  1.0000
  Si          0.88478      0.76993      0.93878  1.0000
  Si          0.61194      0.26993      0.93878  1.0000
  Si          0.38478      0.73002      0.06134  1.0000
  Si          0.38478      0.73002      0.43878  1.0000
  Si          0.61194      0.26993      0.56134  1.0000
  Si          0.38478      0.26993      0.56134  1.0000
  Si          0.61194      0.73002      0.43878  1.0000
  Si          0.61194      0.73002      0.06134  1.0000
  Si          0.38478      0.26993      0.93878  1.0000
  Si          0.77037      0.90387      0.05309  1.0000
  Si          0.22635      0.09609      0.94703  1.0000
  Si          0.22635      0.09609      0.55309  1.0000
  Si          0.77037      0.90387      0.44703  1.0000
  Si          0.22635      0.90387      0.44703  1.0000
  Si          0.77037      0.09609      0.55309  1.0000
  Si          0.77037      0.09609      0.94703  1.0000
  Si          0.22635      0.90387      0.05309  1.0000
  Si          0.27037      0.40387      0.05309  1.0000
  Si          0.72635      0.59609      0.94703  1.0000
  Si          0.72635      0.59609      0.55309  1.0000
  Si          0.27037      0.40387      0.44703  1.0000
  Si          0.72635      0.40387      0.44703  1.0000
  Si          0.27037      0.59609      0.55309  1.0000
  Si          0.27037      0.59609      0.94703  1.0000
  Si          0.72635      0.40387      0.05309  1.0000
  O           0.99836      0.00842      0.15944  1.0000
  O           0.99836      0.99153      0.84068  1.0000
  O           0.99836      0.99153      0.65944  1.0000
  O           0.99836      0.00842      0.34068  1.0000
  O           0.49836      0.50842      0.15944  1.0000
  O           0.49836      0.49153      0.84068  1.0000
  O           0.49836      0.49153      0.65944  1.0000
  O           0.49836      0.50842      0.34068  1.0000
  O           0.13927      0.04265      0.25006  1.0000
  O           0.85745      0.95731      0.75006  1.0000
  O           0.85745      0.04265      0.25006  1.0000
  O           0.13927      0.95731      0.75006  1.0000
  O           0.63927      0.54265      0.25006  1.0000
  O           0.35745      0.45731      0.75006  1.0000
  O           0.35745      0.54265      0.25006  1.0000
  O           0.63927      0.45731      0.75006  1.0000
  O           0.12650      0.14971      0.12776  1.0000
  O           0.87022      0.85025      0.87236  1.0000
  O           0.87022      0.85025      0.62776  1.0000
  O           0.12650      0.14971      0.37236  1.0000
  O           0.87022      0.14971      0.37236  1.0000
  O           0.12650      0.85025      0.62776  1.0000
  O           0.12650      0.85025      0.87236  1.0000
  O           0.87022      0.14971      0.12776  1.0000
  O           0.62650      0.64971      0.12776  1.0000
  O           0.37022      0.35025      0.87236  1.0000
  O           0.37022      0.35025      0.62776  1.0000
  O           0.62650      0.64971      0.37236  1.0000
  O           0.37022      0.64971      0.37236  1.0000
  O           0.62650      0.35025      0.62776  1.0000
  O           0.62650      0.35025      0.87236  1.0000
  O           0.37022      0.64971      0.12776  1.0000
  O           0.17645      0.95195      0.12370  1.0000
  O           0.82027      0.04801      0.87642  1.0000
  O           0.82027      0.04801      0.62370  1.0000
  O           0.17645      0.95195      0.37642  1.0000
  O           0.82027      0.95195      0.37642  1.0000
  O           0.17645      0.04801      0.62370  1.0000
  O           0.17645      0.04801      0.87642  1.0000
  O           0.82027      0.95195      0.12370  1.0000
  O           0.67645      0.45195      0.12370  1.0000
  O           0.32027      0.54801      0.87642  1.0000
  O           0.32027      0.54801      0.62370  1.0000
  O           0.67645      0.45195      0.37642  1.0000
  O           0.32027      0.45195      0.37642  1.0000
  O           0.67645      0.54801      0.62370  1.0000
  O           0.67645      0.54801      0.87642  1.0000
  O           0.32027      0.45195      0.12370  1.0000
  O           0.14917      0.83143      0.00988  1.0000
  O           0.84755      0.16852      0.99024  1.0000
  O           0.84755      0.16852      0.50988  1.0000
  O           0.14917      0.83143      0.49024  1.0000
  O           0.84755      0.83143      0.49024  1.0000
  O           0.14917      0.16852      0.50988  1.0000
  O           0.14917      0.16852      0.99024  1.0000
  O           0.84755      0.83143      0.00988  1.0000
  O           0.64917      0.33143      0.00988  1.0000
  O           0.34755      0.66852      0.99024  1.0000
  O           0.34755      0.66852      0.50988  1.0000
  O           0.64917      0.33143      0.49024  1.0000
  O           0.34755      0.33143      0.49024  1.0000
  O           0.64917      0.66852      0.50988  1.0000
  O           0.64917      0.66852      0.99024  1.0000
  O           0.34755      0.33143      0.00988  1.0000
  O           0.99836      0.74384      0.94570  1.0000
  O           0.99836      0.25611      0.05442  1.0000
  O           0.99836      0.25611      0.44570  1.0000
  O           0.99836      0.74384      0.55442  1.0000
  O           0.49836      0.24384      0.94570  1.0000
  O           0.49836      0.75611      0.05442  1.0000
  O           0.49836      0.75611      0.44570  1.0000
  O           0.49836      0.24384      0.55442  1.0000
  O           0.17724      0.66674      0.92918  1.0000
  O           0.81948      0.33321      0.07094  1.0000
  O           0.81948      0.33321      0.42918  1.0000
  O           0.17724      0.66674      0.57094  1.0000
  O           0.81948      0.66674      0.57094  1.0000
  O           0.17724      0.33321      0.42918  1.0000
  O           0.17724      0.33321      0.07094  1.0000
  O           0.81948      0.66674      0.92918  1.0000
  O           0.67724      0.16674      0.92918  1.0000
  O           0.31948      0.83321      0.07094  1.0000
  O           0.31948      0.83321      0.42918  1.0000
  O           0.67724      0.16674      0.57094  1.0000
  O           0.31948      0.16674      0.57094  1.0000
  O           0.67724      0.83321      0.42918  1.0000
  O           0.67724      0.83321      0.07094  1.0000
  O           0.31948      0.16674      0.92918  1.0000
  O           0.74284      0.99998      0.00006  1.0000
  O           0.25388      0.99998      0.00006  1.0000
  O           0.25388      0.99998      0.50006  1.0000
  O           0.74284      0.99998      0.50006  1.0000
  O           0.24284      0.49998      0.00006  1.0000
  O           0.75388      0.49998      0.00006  1.0000
  O           0.75388      0.49998      0.50006  1.0000
  O           0.24284      0.49998      0.50006  1.0000
