data_cif

_audit_creation_method             'generated by GULP'

_symmetry_space_group_name_H-M     'P 1'
_symmetry_Int_Tables_number        1
_symmetry_cell_setting             triclinic

_cell_length_a                       20.3340
_cell_length_b                       19.9716
_cell_length_c                       13.4105
_cell_angle_alpha                   90.0000
_cell_angle_beta                    90.0000
_cell_angle_gamma                   90.0000

loop_
_atom_site_label
_atom_site_fract_x
_atom_site_fract_y
_atom_site_fract_z
_atom_site_occupancy
  O           0.50120      0.06990      0.70180  1.0000
  O           0.49505      0.94729      0.29351  1.0000
  O           0.99505      0.94729      0.20180  1.0000
  O           0.00120      0.06990      0.79351  1.0000
  O           0.49505      0.56990      0.29351  1.0000
  O           0.50120      0.44729      0.70180  1.0000
  O           0.00120      0.44729      0.79351  1.0000
  O           0.99505      0.56990      0.20180  1.0000
  O           0.38359      0.06955      0.78883  1.0000
  O           0.61266      0.94764      0.20648  1.0000
  O           0.11266      0.94764      0.28883  1.0000
  O           0.88359      0.06955      0.70648  1.0000
  O           0.61266      0.56955      0.20648  1.0000
  O           0.38359      0.44764      0.78883  1.0000
  O           0.88359      0.44764      0.70648  1.0000
  O           0.11266      0.56955      0.28883  1.0000
  O           0.40415      0.14073      0.62591  1.0000
  O           0.59211      0.87646      0.36939  1.0000
  O           0.09211      0.87646      0.12591  1.0000
  O           0.90415      0.14073      0.86939  1.0000
  O           0.59211      0.64073      0.36939  1.0000
  O           0.40415      0.37646      0.62591  1.0000
  O           0.90415      0.37646      0.86939  1.0000
  O           0.09211      0.64073      0.12591  1.0000
  O           0.40112      0.01120      0.61964  1.0000
  O           0.59514      0.00599      0.37567  1.0000
  O           0.09514      0.00599      0.11964  1.0000
  O           0.90112      0.01120      0.87567  1.0000
  O           0.59514      0.51120      0.37567  1.0000
  O           0.40112      0.50599      0.61964  1.0000
  O           0.90112      0.50599      0.87567  1.0000
  O           0.09514      0.51120      0.11964  1.0000
  O           0.31676      0.04810      0.95930  1.0000
  O           0.67950      0.96909      0.03601  1.0000
  O           0.17950      0.96909      0.45930  1.0000
  O           0.81676      0.04810      0.53601  1.0000
  O           0.67950      0.54810      0.03601  1.0000
  O           0.31676      0.46909      0.95930  1.0000
  O           0.81676      0.46909      0.53601  1.0000
  O           0.17950      0.54810      0.45930  1.0000
  O           0.31710      0.96027      0.81326  1.0000
  O           0.67915      0.05692      0.18204  1.0000
  O           0.17915      0.05692      0.31326  1.0000
  O           0.81710      0.96027      0.68204  1.0000
  O           0.67915      0.46027      0.18204  1.0000
  O           0.31710      0.55692      0.81326  1.0000
  O           0.81710      0.55692      0.68204  1.0000
  O           0.17915      0.46027      0.31326  1.0000
  O           0.25615      0.07263      0.79195  1.0000
  O           0.74011      0.94455      0.20335  1.0000
  O           0.24011      0.94455      0.29195  1.0000
  O           0.75615      0.07263      0.70335  1.0000
  O           0.74011      0.57263      0.20335  1.0000
  O           0.25615      0.44455      0.79195  1.0000
  O           0.75615      0.44455      0.70335  1.0000
  O           0.24011      0.57263      0.29195  1.0000
  O           0.29082      0.13302      0.10733  1.0000
  O           0.70543      0.88417      0.88797  1.0000
  O           0.20543      0.88417      0.60733  1.0000
  O           0.79082      0.13302      0.38797  1.0000
  O           0.70543      0.63302      0.88797  1.0000
  O           0.29082      0.38417      0.10733  1.0000
  O           0.79082      0.38417      0.38797  1.0000
  O           0.20543      0.63302      0.60733  1.0000
  O           0.19868      0.05498      0.03296  1.0000
  O           0.79758      0.96221      0.96234  1.0000
  O           0.29758      0.96221      0.53296  1.0000
  O           0.69868      0.05498      0.46234  1.0000
  O           0.79758      0.55498      0.96234  1.0000
  O           0.19868      0.46221      0.03296  1.0000
  O           0.69868      0.46221      0.46234  1.0000
  O           0.29758      0.55498      0.53296  1.0000
  O           0.29421      0.00629      0.14264  1.0000
  O           0.70204      0.01090      0.85266  1.0000
  O           0.20204      0.01090      0.64264  1.0000
  O           0.79421      0.00629      0.35266  1.0000
  O           0.70204      0.50629      0.85266  1.0000
  O           0.29421      0.51090      0.14264  1.0000
  O           0.79421      0.51090      0.35266  1.0000
  O           0.20204      0.50629      0.64264  1.0000
  O           0.10488      0.13537      0.09707  1.0000
  O           0.89137      0.88182      0.89824  1.0000
  O           0.39137      0.88182      0.59707  1.0000
  O           0.60488      0.13537      0.39824  1.0000
  O           0.89137      0.63537      0.89824  1.0000
  O           0.10488      0.38182      0.09707  1.0000
  O           0.60488      0.38182      0.39824  1.0000
  O           0.39137      0.63537      0.59707  1.0000
  O           0.08291      0.05685      0.94257  1.0000
  O           0.91334      0.96033      0.05274  1.0000
  O           0.41334      0.96033      0.44257  1.0000
  O           0.58291      0.05685      0.55274  1.0000
  O           0.91334      0.55685      0.05274  1.0000
  O           0.08291      0.46033      0.94257  1.0000
  O           0.58291      0.46033      0.55274  1.0000
  O           0.41334      0.55685      0.44257  1.0000
  O           0.12970      0.08083      0.76471  1.0000
  O           0.86655      0.93636      0.23060  1.0000
  O           0.36655      0.93636      0.26471  1.0000
  O           0.62970      0.08083      0.73060  1.0000
  O           0.86655      0.58083      0.23060  1.0000
  O           0.12970      0.43636      0.76471  1.0000
  O           0.62970      0.43636      0.73060  1.0000
  O           0.36655      0.58083      0.26471  1.0000
  O           0.07794      0.96534      0.80347  1.0000
  O           0.91831      0.05185      0.19184  1.0000
  O           0.41831      0.05185      0.30347  1.0000
  O           0.57794      0.96534      0.69184  1.0000
  O           0.91831      0.46534      0.19184  1.0000
  O           0.07794      0.55185      0.80347  1.0000
  O           0.57794      0.55185      0.69184  1.0000
  O           0.41831      0.46534      0.30347  1.0000
  O           0.21143      0.14113      0.64047  1.0000
  O           0.78482      0.87606      0.35484  1.0000
  O           0.28482      0.87606      0.14047  1.0000
  O           0.71143      0.14113      0.85484  1.0000
  O           0.78482      0.64113      0.35484  1.0000
  O           0.21143      0.37606      0.64047  1.0000
  O           0.71143      0.37606      0.85484  1.0000
  O           0.28482      0.64113      0.14047  1.0000
  O           0.49440      0.86477      0.70851  1.0000
  O           0.50185      0.15242      0.28680  1.0000
  O           0.00185      0.15242      0.20851  1.0000
  O           0.99440      0.86477      0.78680  1.0000
  O           0.50185      0.36477      0.28680  1.0000
  O           0.49440      0.65242      0.70851  1.0000
  O           0.99440      0.65242      0.78680  1.0000
  O           0.00185      0.36477      0.20851  1.0000
  O           0.37473      0.84600      0.77943  1.0000
  O           0.62152      0.17118      0.21587  1.0000
  O           0.12152      0.17118      0.27943  1.0000
  O           0.87473      0.84600      0.71587  1.0000
  O           0.62152      0.34600      0.21587  1.0000
  O           0.37473      0.67118      0.77943  1.0000
  O           0.87473      0.67118      0.71587  1.0000
  O           0.12152      0.34600      0.27943  1.0000
  O           0.42588      0.75859      0.65657  1.0000
  O           0.57037      0.25859      0.33873  1.0000
  O           0.07037      0.25859      0.15657  1.0000
  O           0.92588      0.75859      0.83873  1.0000
  O           0.31065      0.86675      0.94929  1.0000
  O           0.68560      0.15044      0.04602  1.0000
  O           0.18560      0.15044      0.44929  1.0000
  O           0.81065      0.86675      0.54602  1.0000
  O           0.68560      0.36675      0.04602  1.0000
  O           0.31065      0.65044      0.94929  1.0000
  O           0.81065      0.65044      0.54602  1.0000
  O           0.18560      0.36675      0.44929  1.0000
  O           0.24664      0.85295      0.78439  1.0000
  O           0.74961      0.16424      0.21092  1.0000
  O           0.24961      0.16424      0.28439  1.0000
  O           0.74664      0.85295      0.71092  1.0000
  O           0.74961      0.35295      0.21092  1.0000
  O           0.24664      0.66424      0.78439  1.0000
  O           0.74664      0.66424      0.71092  1.0000
  O           0.24961      0.35295      0.28439  1.0000
  O           0.28335      0.75859      0.05153  1.0000
  O           0.71290      0.25859      0.94378  1.0000
  O           0.21290      0.25859      0.55153  1.0000
  O           0.78335      0.75859      0.44378  1.0000
  O           0.19243      0.84626      0.01405  1.0000
  O           0.80382      0.17093      0.98125  1.0000
  O           0.30382      0.17093      0.51405  1.0000
  O           0.69243      0.84626      0.48125  1.0000
  O           0.80382      0.34626      0.98125  1.0000
  O           0.19243      0.67093      0.01405  1.0000
  O           0.69243      0.67093      0.48125  1.0000
  O           0.30382      0.34626      0.51405  1.0000
  O           0.09918      0.75859      0.03593  1.0000
  O           0.89707      0.25859      0.95937  1.0000
  O           0.39707      0.25859      0.53593  1.0000
  O           0.59918      0.75859      0.45937  1.0000
  O           0.07843      0.86779      0.93199  1.0000
  O           0.91783      0.14940      0.06332  1.0000
  O           0.41783      0.14940      0.43199  1.0000
  O           0.57843      0.86779      0.56332  1.0000
  O           0.91783      0.36779      0.06332  1.0000
  O           0.07843      0.64940      0.93199  1.0000
  O           0.57843      0.64940      0.56332  1.0000
  O           0.41783      0.36779      0.43199  1.0000
  O           0.12128      0.84832      0.74913  1.0000
  O           0.87498      0.16886      0.24617  1.0000
  O           0.37498      0.16886      0.24913  1.0000
  O           0.62128      0.84832      0.74617  1.0000
  O           0.87498      0.34832      0.24617  1.0000
  O           0.12128      0.66886      0.74913  1.0000
  O           0.62128      0.66886      0.74617  1.0000
  O           0.37498      0.34832      0.24913  1.0000
  O           0.19948      0.75859      0.67143  1.0000
  O           0.79678      0.25859      0.32387  1.0000
  O           0.29678      0.25859      0.17143  1.0000
  O           0.69948      0.75859      0.82387  1.0000
  Si          0.42380      0.07463      0.68664  1.0000
  Si          0.57245      0.94255      0.30867  1.0000
  Si          0.07245      0.94255      0.18664  1.0000
  Si          0.92380      0.07463      0.80867  1.0000
  Si          0.57245      0.57463      0.30867  1.0000
  Si          0.42380      0.44255      0.68664  1.0000
  Si          0.92380      0.44255      0.80867  1.0000
  Si          0.07245      0.57463      0.18664  1.0000
  Si          0.31990      0.03885      0.84134  1.0000
  Si          0.67636      0.97834      0.15397  1.0000
  Si          0.17636      0.97834      0.34134  1.0000
  Si          0.81990      0.03885      0.65397  1.0000
  Si          0.67636      0.53885      0.15397  1.0000
  Si          0.31990      0.47834      0.84134  1.0000
  Si          0.81990      0.47834      0.65397  1.0000
  Si          0.17636      0.53885      0.34134  1.0000
  Si          0.27591      0.06113      0.05939  1.0000
  Si          0.72034      0.95606      0.93591  1.0000
  Si          0.22034      0.95606      0.55939  1.0000
  Si          0.77591      0.06113      0.43591  1.0000
  Si          0.72034      0.56113      0.93591  1.0000
  Si          0.27591      0.45606      0.05939  1.0000
  Si          0.77591      0.45606      0.43591  1.0000
  Si          0.22034      0.56113      0.55939  1.0000
  Si          0.12064      0.06435      0.04667  1.0000
  Si          0.87561      0.95284      0.94863  1.0000
  Si          0.37561      0.95284      0.54667  1.0000
  Si          0.62064      0.06435      0.44863  1.0000
  Si          0.87561      0.56435      0.94863  1.0000
  Si          0.12064      0.45284      0.04667  1.0000
  Si          0.62064      0.45284      0.44863  1.0000
  Si          0.37561      0.56435      0.54667  1.0000
  Si          0.07254      0.04448      0.82519  1.0000
  Si          0.92371      0.97271      0.17012  1.0000
  Si          0.42371      0.97271      0.32519  1.0000
  Si          0.57254      0.04448      0.67012  1.0000
  Si          0.92371      0.54448      0.17012  1.0000
  Si          0.07254      0.47271      0.82519  1.0000
  Si          0.57254      0.47271      0.67012  1.0000
  Si          0.42371      0.54448      0.32519  1.0000
  Si          0.19911      0.07782      0.70975  1.0000
  Si          0.79714      0.93936      0.28556  1.0000
  Si          0.29714      0.93936      0.20975  1.0000
  Si          0.69911      0.07782      0.78556  1.0000
  Si          0.79714      0.57782      0.28556  1.0000
  Si          0.19911      0.43936      0.70975  1.0000
  Si          0.69911      0.43936      0.78556  1.0000
  Si          0.29714      0.57782      0.20975  1.0000
  Si          0.42226      0.83648      0.68494  1.0000
  Si          0.57400      0.18071      0.31037  1.0000
  Si          0.07400      0.18071      0.18494  1.0000
  Si          0.92226      0.83648      0.81037  1.0000
  Si          0.57400      0.33648      0.31037  1.0000
  Si          0.42226      0.68071      0.68494  1.0000
  Si          0.92226      0.68071      0.81037  1.0000
  Si          0.07400      0.33648      0.18494  1.0000
  Si          0.31368      0.88117      0.83258  1.0000
  Si          0.68257      0.13601      0.16272  1.0000
  Si          0.18257      0.13601      0.33258  1.0000
  Si          0.81368      0.88117      0.66272  1.0000
  Si          0.68257      0.38117      0.16272  1.0000
  Si          0.31368      0.63601      0.83258  1.0000
  Si          0.81368      0.63601      0.66272  1.0000
  Si          0.18257      0.38117      0.33258  1.0000
  Si          0.26937      0.83668      0.04028  1.0000
  Si          0.72688      0.18050      0.95503  1.0000
  Si          0.22688      0.18050      0.54028  1.0000
  Si          0.76937      0.83668      0.45503  1.0000
  Si          0.72688      0.33668      0.95503  1.0000
  Si          0.26937      0.68050      0.04028  1.0000
  Si          0.76937      0.68050      0.45503  1.0000
  Si          0.22688      0.33668      0.54028  1.0000
  Si          0.11443      0.83693      0.02801  1.0000
  Si          0.88182      0.18026      0.96729  1.0000
  Si          0.38182      0.18026      0.52801  1.0000
  Si          0.61443      0.83693      0.46729  1.0000
  Si          0.88182      0.33693      0.96729  1.0000
  Si          0.11443      0.68026      0.02801  1.0000
  Si          0.61443      0.68026      0.46729  1.0000
  Si          0.38182      0.33693      0.52801  1.0000
  Si          0.06773      0.88623      0.81627  1.0000
  Si          0.92852      0.13096      0.17904  1.0000
  Si          0.42852      0.13096      0.31627  1.0000
  Si          0.56773      0.88623      0.67904  1.0000
  Si          0.92852      0.38623      0.17904  1.0000
  Si          0.06773      0.63096      0.81627  1.0000
  Si          0.56773      0.63096      0.67904  1.0000
  Si          0.42852      0.38623      0.31627  1.0000
  Si          0.19244      0.83576      0.70030  1.0000
  Si          0.80381      0.18142      0.29500  1.0000
  Si          0.30381      0.18142      0.20030  1.0000
  Si          0.69244      0.83576      0.79500  1.0000
  Si          0.80381      0.33576      0.29500  1.0000
  Si          0.19244      0.68142      0.70030  1.0000
  Si          0.69244      0.68142      0.79500  1.0000
  Si          0.30381      0.33576      0.20030  1.0000
